    7
FINAL HEAT OF FORMATION =     0.000000
 O    -1.774140     0.314290     0.000000
 U     0.000000     0.287220     0.000000
Cl     0.000000    -1.106040     2.077470
 O     1.774140     0.314290    -0.000000
Cl     0.000000    -1.106040    -2.077470
Ar    -0.000000     1.609488    -2.692881
Ar     0.000000     1.958189     2.491558
