   27
 
 U     0.000000     0.000000     1.309588 61.539655
 O     1.738622    -0.000000     1.210753 -0.428696
 O    -1.738622     0.000000     1.210753 -0.428696
 N     0.000000     1.361566    -0.886966 -0.317312
 C     0.000000     2.681721    -0.871558 -0.004494
 H     0.000000     3.146280     0.108808  0.162160
 C     0.000000     3.448261    -2.041165 -0.085752
 H     0.000000     4.527855    -1.968445  0.149995
 C     0.000000     2.810736    -3.253254 -0.169783
 H     0.000000     3.372886    -4.180726  0.142053
 C     0.000000     1.407669    -3.298219  0.183130
 C     0.000000     0.676254    -4.522154 -0.224098
 H     0.000000     1.229791    -5.454190  0.128316
 C    -0.000000    -0.676254    -4.522154 -0.224098
 H    -0.000000    -1.229791    -5.454190  0.128316
 C    -0.000000    -1.407669    -3.298219  0.183130
 C    -0.000000    -2.810736    -3.253254 -0.169783
 H    -0.000000    -3.372886    -4.180726  0.142053
 C    -0.000000    -3.448261    -2.041165 -0.085752
 H    -0.000000    -4.527855    -1.968445  0.149995
 C    -0.000000    -2.681721    -0.871558 -0.004494
 H    -0.000000    -3.146280     0.108808  0.162160
 N    -0.000000    -1.361566    -0.886966 -0.317312
 C    -0.000000    -0.717503    -2.071648  0.183623
 C     0.000000     0.717503    -2.071648  0.183623
Cl     0.000000     2.261729     2.595542 -0.489016
Cl    -0.000000    -2.261729     2.595542 -0.489016
