   49
 
 U    -0.000008    -0.000008     0.161033 61.395218
 O    -0.000007     1.762651     0.415115 -0.497166
 O    -0.000007    -1.762669     0.415107 -0.497057
 N     1.369750    -0.000009     2.473554 -0.246643
 C     2.689590    -0.000010     2.480284 -0.000360
 H     3.163079    -0.000015     1.504637  0.149290
 C     3.450015    -0.000003     3.654502 -0.096067
 H     4.530196    -0.000003     3.586162  0.139999
 C     2.805681     0.000005     4.860370 -0.178352
 H     3.356423     0.000011     5.794956  0.132535
 C     1.403136     0.000006     4.888584  0.193122
 C     0.675522     0.000014     6.113310 -0.228362
 H     1.232073     0.000020     7.043817  0.119641
 C    -0.675511     0.000014     6.113313 -0.228386
 H    -1.232058     0.000020     7.043822  0.119643
 C    -1.403131     0.000006     4.888590  0.193125
 C    -2.805675     0.000005     4.860382 -0.178366
 H    -3.356414     0.000011     5.794971  0.132532
 C    -3.450015    -0.000003     3.654517 -0.096033
 H    -4.530196    -0.000003     3.586181  0.139996
 C    -2.689595    -0.000010     2.480296 -0.000331
 H    -3.163088    -0.000015     1.504651  0.149291
 N    -1.369755    -0.000009     2.473560 -0.246667
 C    -0.718676    -0.000002     3.655004  0.165816
 C     0.718677    -0.000002     3.655001  0.165819
Cl     2.504706    -0.000007    -0.757729 -0.510571
Cl    -2.504726    -0.000007    -0.757718 -0.510599
 N    -0.000012     1.354770    -2.332487 -0.186798
 C    -0.000015     2.669837    -2.326761 -0.000845
 H    -0.000025     3.138432    -1.350730  0.149260
 C    -0.000007     3.442891    -3.492994 -0.087614
 H    -0.000009     4.523101    -3.419524  0.128016
 C     0.000006     2.807839    -4.706080 -0.186523
 H     0.000014     3.367958    -5.635151  0.124933
 C     0.000008     1.406193    -4.745003  0.149199
 C     0.000020     0.675947    -5.969554 -0.226514
 H     0.000028     1.230591    -6.901546  0.112272
 C     0.000020    -0.675937    -5.969557 -0.226467
 H     0.000028    -1.230578    -6.901551  0.112270
 C     0.000009    -1.406189    -4.745009  0.149235
 C     0.000006    -2.807835    -4.706093 -0.186525
 H     0.000014    -3.367950    -5.635166  0.124946
 C    -0.000006    -3.442893    -3.493010 -0.087600
 H    -0.000009    -4.523103    -3.419544  0.128019
 C    -0.000015    -2.669844    -2.326773 -0.000806
 H    -0.000025    -3.138444    -1.350744  0.149283
 N    -0.000012    -1.354777    -2.332494 -0.186796
 C    -0.000001    -0.718369    -3.513699  0.183939
 C    -0.000001     0.718367    -3.513696  0.183952
